  
       XFOIL         Version 6.99
  
 Calculated polar for: CLARK Y AIRFOIL                                 
  
 1 1 Reynolds number fixed          Mach number fixed         
  
 xtrf =   1.000 (top)        1.000 (bottom)  
 Mach =   0.000     Re =     5.000 e 6     Ncrit =   9.000
  
   alpha    CL        CD       CDp       CM     Top_Xtr  Bot_Xtr
  ------ -------- --------- --------- -------- -------- --------
 -19.000  -1.4421   0.03889   0.03633  -0.0883   1.0000   0.0044
 -18.750  -1.4620   0.03242   0.02969  -0.0945   1.0000   0.0045
 -18.500  -1.4704   0.02914   0.02629  -0.0960   1.0000   0.0046
 -18.250  -1.4743   0.02696   0.02402  -0.0953   1.0000   0.0049
 -18.000  -1.4745   0.02542   0.02240  -0.0935   1.0000   0.0052
 -17.750  -1.4689   0.02411   0.02101  -0.0918   1.0000   0.0055
 -17.500  -1.4588   0.02286   0.01969  -0.0906   1.0000   0.0059
 -17.250  -1.4467   0.02175   0.01851  -0.0893   1.0000   0.0062
 -17.000  -1.4340   0.02073   0.01743  -0.0879   1.0000   0.0065
 -16.750  -1.4216   0.01985   0.01651  -0.0861   1.0000   0.0068
 -16.500  -1.4101   0.01911   0.01572  -0.0839   1.0000   0.0071
 -16.250  -1.3902   0.01836   0.01492  -0.0833   0.9996   0.0074
 -16.000  -1.3648   0.01764   0.01417  -0.0837   0.9989   0.0076
 -15.750  -1.3388   0.01701   0.01350  -0.0841   0.9980   0.0077
 -15.500  -1.3120   0.01643   0.01288  -0.0845   0.9969   0.0078
 -15.250  -1.2847   0.01589   0.01230  -0.0850   0.9958   0.0079
 -15.000  -1.2568   0.01539   0.01176  -0.0856   0.9947   0.0080
 -14.750  -1.2283   0.01491   0.01125  -0.0862   0.9936   0.0080
 -14.500  -1.1997   0.01444   0.01074  -0.0868   0.9924   0.0081
 -14.250  -1.1715   0.01384   0.01013  -0.0874   0.9909   0.0090
 -14.000  -1.1465   0.01324   0.00951  -0.0874   0.9880   0.0099
 -13.750  -1.1223   0.01269   0.00897  -0.0870   0.9842   0.0107
 -13.500  -1.0967   0.01226   0.00853  -0.0869   0.9806   0.0114
 -13.250  -1.0719   0.01190   0.00817  -0.0865   0.9762   0.0119
 -13.000  -1.0471   0.01156   0.00781  -0.0861   0.9714   0.0135
 -12.750  -1.0215   0.01126   0.00756  -0.0858   0.9668   0.0153
 -12.500  -0.9953   0.01109   0.00742  -0.0855   0.9617   0.0167
 -12.250  -0.9682   0.01095   0.00730  -0.0853   0.9577   0.0174
 -12.000  -0.9411   0.01082   0.00718  -0.0852   0.9523   0.0179
 -11.750  -0.9142   0.01070   0.00704  -0.0850   0.9454   0.0182
 -11.500  -0.8869   0.01057   0.00692  -0.0849   0.9389   0.0185
 -11.250  -0.8592   0.01047   0.00682  -0.0848   0.9339   0.0188
 -11.000  -0.8317   0.01039   0.00672  -0.0847   0.9266   0.0189
 -10.750  -0.8037   0.01039   0.00672  -0.0847   0.9189   0.0191
 -10.500  -0.7754   0.01038   0.00671  -0.0847   0.9128   0.0193
 -10.250  -0.7476   0.01035   0.00667  -0.0846   0.9036   0.0194
 -10.000  -0.7194   0.01033   0.00665  -0.0847   0.8967   0.0195
  -9.750  -0.6913   0.01030   0.00660  -0.0846   0.8887   0.0195
  -9.500  -0.6632   0.01030   0.00660  -0.0846   0.8794   0.0196
  -9.250  -0.6347   0.01029   0.00659  -0.0847   0.8731   0.0197
  -9.000  -0.6066   0.01029   0.00656  -0.0847   0.8637   0.0197
  -8.750  -0.5785   0.01022   0.00648  -0.0847   0.8565   0.0198
  -8.500  -0.5495   0.01034   0.00660  -0.0848   0.8484   0.0198
  -8.250  -0.5183   0.01102   0.00734  -0.0852   0.8390   0.0199
  -8.000  -0.4819   0.01302   0.00954  -0.0861   0.8323   0.0201
  -7.750  -0.4594   0.01163   0.00797  -0.0855   0.8221   0.0203
  -7.500  -0.4340   0.01089   0.00713  -0.0853   0.8139   0.0203
  -7.250  -0.4083   0.01034   0.00648  -0.0850   0.7999   0.0203
  -7.000  -0.3818   0.00990   0.00596  -0.0848   0.7893   0.0203
  -6.750  -0.3553   0.00949   0.00547  -0.0846   0.7779   0.0203
  -6.500  -0.3296   0.00883   0.00471  -0.0843   0.7692   0.0204
  -6.250  -0.3030   0.00843   0.00423  -0.0840   0.7586   0.0204
  -6.000  -0.2758   0.00811   0.00385  -0.0839   0.7495   0.0204
  -5.750  -0.2488   0.00781   0.00348  -0.0837   0.7387   0.0204
  -5.500  -0.2210   0.00759   0.00321  -0.0836   0.7300   0.0203
  -4.250  -0.0842   0.00622   0.00142  -0.0828   0.6787   0.0262
  -4.000  -0.0558   0.00617   0.00136  -0.0828   0.6696   0.0277
  -3.750  -0.0274   0.00614   0.00131  -0.0829   0.6587   0.0285
  -3.500   0.0012   0.00610   0.00126  -0.0829   0.6511   0.0290
  -3.250   0.0296   0.00609   0.00121  -0.0830   0.6399   0.0293
  -3.000   0.0582   0.00606   0.00118  -0.0830   0.6314   0.0295
  -2.750   0.0864   0.00605   0.00114  -0.0830   0.6184   0.0296
  -2.500   0.1148   0.00604   0.00110  -0.0831   0.6070   0.0297
  -2.250   0.1432   0.00602   0.00106  -0.0831   0.5965   0.0298
  -2.000   0.1714   0.00602   0.00102  -0.0831   0.5846   0.0299
  -1.750   0.1999   0.00600   0.00098  -0.0832   0.5746   0.0299
  -1.500   0.2280   0.00601   0.00094  -0.0832   0.5608   0.0299
  -1.250   0.2564   0.00599   0.00090  -0.0832   0.5513   0.0300
  -1.000   0.2846   0.00600   0.00087  -0.0832   0.5384   0.0300
  -0.750   0.3128   0.00601   0.00085  -0.0832   0.5269   0.0300
  -0.500   0.3411   0.00602   0.00082  -0.0832   0.5154   0.0300
   0.000   0.3965   0.00595   0.00077  -0.0831   0.4867   0.0659
   0.250   0.4242   0.00596   0.00078  -0.0830   0.4700   0.0840
   0.500   0.4515   0.00594   0.00079  -0.0829   0.4519   0.1160
   0.750   0.4784   0.00589   0.00082  -0.0828   0.4327   0.1726
   1.000   0.5053   0.00592   0.00086  -0.0826   0.4097   0.2146
   1.250   0.5320   0.00600   0.00093  -0.0825   0.3845   0.2474
   1.500   0.5588   0.00608   0.00099  -0.0823   0.3601   0.2813
   1.750   0.5853   0.00612   0.00107  -0.0821   0.3367   0.3330
   2.000   0.6118   0.00613   0.00115  -0.0819   0.3170   0.4022
   2.250   0.6389   0.00605   0.00121  -0.0819   0.3084   0.4792
   2.500   0.6661   0.00597   0.00128  -0.0818   0.2999   0.5538
   2.750   0.6932   0.00584   0.00135  -0.0817   0.2945   0.6471
   3.000   0.7194   0.00572   0.00143  -0.0815   0.2866   0.7488
   3.250   0.7433   0.00546   0.00153  -0.0806   0.2801   0.8959
   3.500   0.7694   0.00543   0.00160  -0.0801   0.2785   0.9367
   3.750   0.7953   0.00545   0.00168  -0.0796   0.2741   0.9794
   4.000   0.8280   0.00558   0.00177  -0.0807   0.2652   0.9907
   4.500   0.8943   0.00577   0.00191  -0.0831   0.2548   0.9968
   4.750   0.9262   0.00596   0.00202  -0.0842   0.2397   0.9990
   5.000   0.9553   0.00621   0.00216  -0.0846   0.2189   1.0000
   5.250   0.9785   0.00645   0.00231  -0.0837   0.2004   1.0000
   5.500   1.0014   0.00673   0.00248  -0.0828   0.1791   1.0000
   5.750   1.0246   0.00703   0.00267  -0.0819   0.1580   1.0000
   6.000   1.0477   0.00738   0.00290  -0.0811   0.1350   1.0000
   6.250   1.0697   0.00785   0.00320  -0.0801   0.1056   1.0000
   6.500   1.0943   0.00812   0.00340  -0.0796   0.0925   1.0000
   6.750   1.1194   0.00836   0.00358  -0.0792   0.0803   1.0000
   7.000   1.1453   0.00854   0.00374  -0.0789   0.0770   1.0000
   7.250   1.1695   0.00887   0.00398  -0.0783   0.0663   1.0000
   7.500   1.1947   0.00910   0.00417  -0.0780   0.0578   1.0000
   7.750   1.2166   0.00960   0.00455  -0.0770   0.0441   1.0000
   8.000   1.2363   0.01029   0.00508  -0.0758   0.0186   1.0000
   8.250   1.2603   0.01060   0.00536  -0.0752   0.0145   1.0000
   8.500   1.2852   0.01084   0.00559  -0.0748   0.0120   1.0000
   8.750   1.3096   0.01111   0.00585  -0.0743   0.0111   1.0000
   9.000   1.3330   0.01144   0.00617  -0.0737   0.0096   1.0000
   9.250   1.3563   0.01177   0.00650  -0.0730   0.0081   1.0000
   9.500   1.3805   0.01201   0.00673  -0.0725   0.0080   1.0000
  10.000   1.4279   0.01253   0.00726  -0.0715   0.0079   1.0000
  10.250   1.4511   0.01280   0.00753  -0.0708   0.0077   1.0000
  10.500   1.4737   0.01310   0.00783  -0.0701   0.0074   1.0000
  10.750   1.4956   0.01343   0.00815  -0.0693   0.0070   1.0000
  11.000   1.5167   0.01379   0.00851  -0.0684   0.0064   1.0000
  11.250   1.5367   0.01418   0.00889  -0.0673   0.0058   1.0000
  11.500   1.5549   0.01456   0.00929  -0.0658   0.0052   1.0000
  11.750   1.5720   0.01498   0.00973  -0.0641   0.0048   1.0000
  12.000   1.5885   0.01544   0.01021  -0.0624   0.0045   1.0000
  12.250   1.6039   0.01596   0.01078  -0.0606   0.0042   1.0000
  12.500   1.6188   0.01651   0.01137  -0.0588   0.0041   1.0000
  13.000   1.6521   0.01745   0.01233  -0.0559   0.0040   1.0000
  13.250   1.6681   0.01796   0.01285  -0.0545   0.0040   1.0000
  13.500   1.6837   0.01851   0.01342  -0.0531   0.0040   1.0000
  13.750   1.6986   0.01912   0.01404  -0.0517   0.0040   1.0000
  14.000   1.7135   0.01976   0.01470  -0.0503   0.0039   1.0000
  14.250   1.7271   0.02046   0.01543  -0.0488   0.0039   1.0000
  14.500   1.7405   0.02122   0.01620  -0.0474   0.0038   1.0000
  14.750   1.7534   0.02204   0.01704  -0.0460   0.0037   1.0000
  15.000   1.7653   0.02294   0.01797  -0.0446   0.0036   1.0000
  15.250   1.7766   0.02390   0.01896  -0.0432   0.0035   1.0000
  15.500   1.7869   0.02497   0.02005  -0.0418   0.0034   1.0000
  15.750   1.7964   0.02614   0.02125  -0.0405   0.0033   1.0000
  16.000   1.8053   0.02740   0.02254  -0.0392   0.0032   1.0000
  16.250   1.8129   0.02876   0.02394  -0.0379   0.0031   1.0000
  16.500   1.8192   0.03029   0.02550  -0.0366   0.0030   1.0000
  16.750   1.8246   0.03196   0.02721  -0.0355   0.0028   1.0000
  17.000   1.8291   0.03375   0.02905  -0.0344   0.0027   1.0000
  17.250   1.8324   0.03572   0.03106  -0.0334   0.0026   1.0000
  17.500   1.8340   0.03788   0.03328  -0.0324   0.0024   1.0000
  17.750   1.8341   0.04030   0.03577  -0.0316   0.0023   1.0000
  18.000   1.8331   0.04294   0.03848  -0.0309   0.0022   1.0000
  18.250   1.8295   0.04595   0.04158  -0.0304   0.0021   1.0000
  18.500   1.8276   0.04883   0.04453  -0.0301   0.0021   1.0000
  18.750   1.8271   0.05161   0.04737  -0.0299   0.0021   1.0000
  19.000   1.8246   0.05472   0.05054  -0.0299   0.0021   1.0000
  19.250   1.8208   0.05808   0.05396  -0.0300   0.0021   1.0000
  19.500   1.8166   0.06156   0.05751  -0.0303   0.0020   1.0000
  19.750   1.8108   0.06530   0.06132  -0.0308   0.0020   1.0000
  20.000   1.8027   0.06935   0.06543  -0.0313   0.0020   1.0000
