  
       XFOIL         Version 6.99
  
 Calculated polar for: CLARK Y AIRFOIL                                 
  
 1 1 Reynolds number fixed          Mach number fixed         
  
 xtrf =   1.000 (top)        1.000 (bottom)  
 Mach =   0.000     Re =     0.200 e 6     Ncrit =   9.000
  
   alpha    CL        CD       CDp       CM     Top_Xtr  Bot_Xtr
  ------ -------- --------- --------- -------- -------- --------
  -8.750  -0.3618   0.09160   0.08812  -0.0402   1.0000   0.0754
  -8.500  -0.3854   0.08972   0.08634  -0.0403   1.0000   0.0778
  -8.250  -0.4159   0.08876   0.08551  -0.0376   1.0000   0.0785
  -8.000  -0.4464   0.08762   0.08450  -0.0346   1.0000   0.0787
  -7.750  -0.4580   0.08332   0.08017  -0.0415   0.9972   0.0795
  -7.500  -0.4389   0.07577   0.07235  -0.0533   0.9906   0.0800
  -7.250  -0.4346   0.06728   0.06401  -0.0546   0.9869   0.0829
  -7.000  -0.4082   0.06619   0.06293  -0.0539   0.9836   0.0856
  -6.750  -0.3804   0.06232   0.05898  -0.0590   0.9798   0.0892
  -6.500  -0.3491   0.05711   0.05304  -0.0718   0.9701   0.0998
  -6.250  -0.3401   0.04844   0.04432  -0.0749   0.9632   0.1027
  -6.000  -0.3076   0.04562   0.04152  -0.0776   0.9605   0.1050
  -5.750  -0.2949   0.03530   0.03022  -0.0792   0.9497   0.0749
  -5.500  -0.2656   0.03018   0.02451  -0.0814   0.9452   0.0695
  -5.250  -0.2296   0.02551   0.01884  -0.0833   0.9424   0.0623
  -5.000  -0.1884   0.02386   0.01687  -0.0860   0.9405   0.0615
  -4.750  -0.1664   0.02252   0.01532  -0.0850   0.9314   0.0614
  -4.500  -0.1309   0.02063   0.01320  -0.0866   0.9273   0.0623
  -4.250  -0.0938   0.01915   0.01159  -0.0884   0.9242   0.0645
  -4.000  -0.0557   0.01819   0.01058  -0.0904   0.9214   0.0674
  -3.750  -0.0302   0.01762   0.00997  -0.0898   0.9132   0.0700
  -3.500   0.0015   0.01695   0.00925  -0.0903   0.9072   0.0729
  -3.250   0.0360   0.01628   0.00851  -0.0913   0.9031   0.0759
  -3.000   0.0665   0.01579   0.00796  -0.0916   0.8971   0.0788
  -2.750   0.0919   0.01510   0.00731  -0.0909   0.8879   0.0855
  -2.500   0.1241   0.01447   0.00668  -0.0912   0.8821   0.0973
  -2.250   0.1474   0.01359   0.00609  -0.0902   0.8725   0.1524
  -2.000   0.1740   0.01283   0.00579  -0.0899   0.8645   0.2695
  -1.750   0.2008   0.01236   0.00555  -0.0895   0.8567   0.3469
  -1.500   0.2244   0.01186   0.00539  -0.0884   0.8465   0.4404
  -1.250   0.2474   0.01108   0.00521  -0.0869   0.8387   0.6062
  -1.000   0.2650   0.01049   0.00531  -0.0836   0.8278   0.8083
  -0.750   0.3121   0.01030   0.00518  -0.0862   0.8217   0.9318
  -0.500   0.3742   0.01026   0.00505  -0.0928   0.8140   0.9890
  -0.250   0.4175   0.01016   0.00482  -0.0959   0.8047   1.0000
   0.000   0.4419   0.01017   0.00471  -0.0951   0.7946   1.0000
   0.250   0.4665   0.01017   0.00459  -0.0943   0.7840   1.0000
   0.500   0.4909   0.01021   0.00454  -0.0935   0.7737   1.0000
   0.750   0.5159   0.01023   0.00445  -0.0927   0.7634   1.0000
   1.000   0.5403   0.01029   0.00444  -0.0919   0.7526   1.0000
   1.250   0.5657   0.01033   0.00437  -0.0912   0.7422   1.0000
   1.500   0.5895   0.01041   0.00439  -0.0902   0.7300   1.0000
   1.750   0.6153   0.01046   0.00433  -0.0895   0.7190   1.0000
   2.000   0.6388   0.01053   0.00437  -0.0885   0.7054   1.0000
   2.250   0.6634   0.01062   0.00439  -0.0877   0.6927   1.0000
   2.500   0.6889   0.01071   0.00437  -0.0870   0.6804   1.0000
   2.750   0.7124   0.01081   0.00445  -0.0860   0.6656   1.0000
   3.000   0.7367   0.01092   0.00451  -0.0851   0.6509   1.0000
   3.250   0.7612   0.01104   0.00457  -0.0842   0.6355   1.0000
   3.500   0.7853   0.01118   0.00461  -0.0833   0.6183   1.0000
   3.750   0.8089   0.01134   0.00468  -0.0823   0.5992   1.0000
   4.000   0.8322   0.01152   0.00479  -0.0812   0.5787   1.0000
   4.250   0.8552   0.01175   0.00493  -0.0802   0.5570   1.0000
   4.500   0.8778   0.01201   0.00510  -0.0791   0.5338   1.0000
   4.750   0.9001   0.01231   0.00532  -0.0779   0.5106   1.0000
   5.000   0.9223   0.01264   0.00553  -0.0768   0.4880   1.0000
   5.250   0.9442   0.01299   0.00576  -0.0757   0.4663   1.0000
   5.500   0.9664   0.01334   0.00602  -0.0747   0.4471   1.0000
   5.750   0.9890   0.01370   0.00630  -0.0737   0.4305   1.0000
   6.000   1.0116   0.01408   0.00660  -0.0728   0.4158   1.0000
   6.250   1.0342   0.01447   0.00692  -0.0719   0.4023   1.0000
   6.500   1.0573   0.01481   0.00732  -0.0711   0.3901   1.0000
   6.750   1.0801   0.01527   0.00768  -0.0703   0.3794   1.0000
   7.000   1.1033   0.01559   0.00808  -0.0696   0.3689   1.0000
   7.250   1.1260   0.01607   0.00848  -0.0688   0.3590   1.0000
   7.500   1.1483   0.01640   0.00890  -0.0679   0.3482   1.0000
   7.750   1.1700   0.01687   0.00933  -0.0670   0.3373   1.0000
   8.000   1.1904   0.01723   0.00977  -0.0658   0.3244   1.0000
   8.250   1.2101   0.01760   0.01018  -0.0645   0.3104   1.0000
   8.500   1.2285   0.01803   0.01059  -0.0631   0.2958   1.0000
   8.750   1.2461   0.01847   0.01102  -0.0615   0.2807   1.0000
   9.000   1.2642   0.01882   0.01145  -0.0600   0.2642   1.0000
   9.250   1.2813   0.01925   0.01192  -0.0584   0.2465   1.0000
   9.500   1.2956   0.01978   0.01243  -0.0564   0.2257   1.0000
   9.750   1.3064   0.02048   0.01305  -0.0539   0.2023   1.0000
  10.000   1.3152   0.02139   0.01385  -0.0513   0.1800   1.0000
  10.250   1.3239   0.02241   0.01478  -0.0489   0.1615   1.0000
  10.500   1.3343   0.02340   0.01575  -0.0468   0.1473   1.0000
  10.750   1.3435   0.02448   0.01689  -0.0446   0.1353   1.0000
  11.000   1.3514   0.02567   0.01803  -0.0426   0.1228   1.0000
  11.250   1.3628   0.02668   0.01911  -0.0409   0.1142   1.0000
  11.500   1.3716   0.02789   0.02034  -0.0391   0.1053   1.0000
  11.750   1.3805   0.02915   0.02166  -0.0375   0.0964   1.0000
  12.000   1.3874   0.03059   0.02311  -0.0358   0.0849   1.0000
  12.250   1.3943   0.03213   0.02470  -0.0342   0.0708   1.0000
  12.500   1.3929   0.03440   0.02689  -0.0323   0.0534   1.0000
  12.750   1.3891   0.03699   0.02939  -0.0306   0.0422   1.0000
  13.000   1.3865   0.03961   0.03202  -0.0291   0.0366   1.0000
  13.250   1.3836   0.04235   0.03481  -0.0279   0.0331   1.0000
  13.500   1.3771   0.04558   0.03812  -0.0269   0.0307   1.0000
  13.750   1.3723   0.04877   0.04144  -0.0262   0.0294   1.0000
  14.000   1.3680   0.05201   0.04483  -0.0257   0.0286   1.0000
  14.250   1.3629   0.05547   0.04844  -0.0255   0.0279   1.0000
  14.500   1.3571   0.05915   0.05227  -0.0254   0.0272   1.0000
  14.750   1.3508   0.06301   0.05631  -0.0256   0.0266   1.0000
  15.000   1.3442   0.06700   0.06043  -0.0260   0.0260   1.0000
  15.250   1.3377   0.07108   0.06465  -0.0264   0.0255   1.0000
  15.500   1.3313   0.07524   0.06892  -0.0270   0.0250   1.0000
  15.750   1.3251   0.07942   0.07323  -0.0277   0.0245   1.0000
  16.000   1.3189   0.08367   0.07759  -0.0285   0.0240   1.0000
  16.250   1.3129   0.08792   0.08195  -0.0294   0.0235   1.0000
  16.500   1.3071   0.09218   0.08632  -0.0303   0.0230   1.0000
  16.750   1.3015   0.09640   0.09064  -0.0311   0.0224   1.0000
  17.000   1.2969   0.10043   0.09477  -0.0318   0.0219   1.0000
  17.250   1.2924   0.10442   0.09888  -0.0324   0.0215   1.0000
  17.500   1.2873   0.10862   0.10321  -0.0332   0.0212   1.0000
  17.750   1.2808   0.11318   0.10794  -0.0344   0.0209   1.0000
  18.000   1.2725   0.11828   0.11321  -0.0361   0.0208   1.0000
  18.250   1.2623   0.12394   0.11906  -0.0385   0.0207   1.0000
  18.750   1.2375   0.13674   0.13223  -0.0448   0.0206   1.0000
  19.000   1.2234   0.14392   0.13959  -0.0489   0.0206   1.0000
  19.250   1.2091   0.15143   0.14728  -0.0534   0.0206   1.0000
  19.750   1.1786   0.16801   0.16419  -0.0640   0.0208   1.0000
  20.000   1.1616   0.17754   0.17388  -0.0702   0.0211   1.0000
